/*--------------------------------*- C++ -*----------------------------------* \
  =========                 |				
  \\      /  F ield         | OpenFOAM: The Open Source CFD Toolbox
   \\    /   O peration     | Website:  https://openfoam.org
    \\  /    A nd           | Version:  8                                   	
     \\/     M anipulation  |
\*---------------------------------------------------------------------------*/
FoamFile
{
    version     2.0;
    format      ascii;
    class       dictionary;
    location    "system";
    object      controlDict;
}
// * * * * * * * * * * * * * * * * * * * * * * * * * * * * * * * * * * * * * //

application     reoFoam;

//startFrom       startTime;
startFrom       latestTime;

startTime       0;

stopAt          endTime;

///////////////////////////////////////////////////////

//For flow field solution

endTime         20;
deltaT          0.01;
//deltaT          0.01;
//deltaT          0.02;
//deltaT          0.05;

writeControl    adjustableRunTime;
writeInterval   0.1;

///////////////////////////////////////////////////////

purgeWrite      0;

writeFormat     ascii;

writePrecision  8;

writeCompression off;

timeFormat      general;

timePrecision   6;

runTimeModifiable yes;

adjustTimeStep  no;

maxCo           1;
maxDeltaT       0.01;

// ************************************************************************* //

functions
{
   #includeFunc  verticalLine_final
   #includeFunc  verticalLine_middle
   #includeFunc  verticalLine_principio
   #includeFunc  horizontalGraph
///////////////////////////////////////////////////////////////////////////

}

///////////////////////////////////////////////////////////////////////////

///////////////////////////////////////////////////////////////////////////

// minmaxdomain
// {
// 	type fieldMinMax;

// 	functionObjectLibs ("libfieldFunctionObjects.so");

// 	enabled true;

// 	mode component;

// 	writeControl timeStep;
// 	writeInterval 1;

// 	log true;

// 	fields (p U);
// }

///////////////////////////////////////////////////////////////////////////

//};
