/*--------------------------------*- C++ -*----------------------------------*\
  =========                 |				
  \\      /  F ield         | OpenFOAM: The Open Source CFD Toolbox
   \\    /   O peration     | Website:  https://openfoam.org
    \\  /    A nd           | Version:  8                                   	
     \\/     M anipulation  |
\*---------------------------------------------------------------------------*/
FoamFile
{
    version     2.0;
    format      ascii;
    class       dictionary;
    object      fvOptions;
}
// * * * * * * * * * * * * * * * * * * * * * * * * * * * * * * * * * * * * * //

/*
//OF7
momentumSource1
{
    type            vectorSemiImplicitSource;
    active          true;

    vectorSemiImplicitSourceCoeffs
    {
        timeStart       0;
        duration        4;

        selectionMode   points;
        points
        (
            (-4 0 0)
            //(4 0 0)
        );

        volumeMode      absolute;
        injectionRateSuSp
        {
            U           ((0 1 0) 0);
            //U           ((6 0.005 0) 0);
        }

    }

}
*/


// momentumSource1
// {
//     type            semiImplicitSource;
//     active          yes;

//     timeStart       0;
//     duration        4;

//     selectionMode   points;

//     points
//     (
//             (-4 0 0)
//             //(4 0 0)
//     );

//     volumeMode      absolute;	//quantity/volume
//     //volumeMode      specific;	//quantity

//     sources
//     {
//         U	//Su explicit - Sp implicit
//         {
// 	    explicit    (0 1 0);
//             implicit    0;

// 	    //explicit    (6 0.005 0);
//             //implicit    0;
//         }
//     }
// }
// ************************************************************************* //
