/*--------------------------------*- C++ -*----------------------------------*\
  =========                 |				
  \\      /  F ield         | OpenFOAM: The Open Source CFD Toolbox
   \\    /   O peration     | Website:  https://openfoam.org
    \\  /    A nd           | Version:  8                                   	
     \\/     M anipulation  |
\*---------------------------------------------------------------------------*/
FoamFile
{
    version     2.0;
    format      ascii;
    class       dictionary;
    object      fvSolution;
}
// * * * * * * * * * * * * * * * * * * * * * * * * * * * * * * * * * * * * * //

solvers
{
/*
    p
    {
        solver          PCG;
        preconditioner  DIC;
        tolerance       1e-06;
        relTol          0;

	minIter 	2;
    }
*/

    gamma
    {

      //    solver smoothSolver;
      
      solver          smoothSolver;
     //PBiCGStab;
  smoother        GaussSeidel;
          preconditioner  DILU;
       tolerance       1e-08;
       relTol          0.0;
		minIter		5;
     }

        gammaFinal
    {

      //    solver smoothSolver;
      
      solver          smoothSolver;
     //PBiCGStab;
  smoother        GaussSeidel;
          preconditioner  DILU;
       tolerance       1e-08;
       relTol          0.0;
		minIter		5;
     }

    "pcorr.*"
    {
        solver          PCG;
        preconditioner  DIC;
        tolerance       1e-06;
        relTol          0.0;

	minIter			5;
    }

    U
    {
      
          solver smoothSolver;
      
      // solver          PBiCGStab;
  smoother        GaussSeidel;
 solver          PCG;
        preconditioner  DIC;
        tolerance       1e-08;
        relTol          0;

	minIter 	5;

    }

       UFinal
    {
      
          solver smoothSolver;
      
      // solver          PBiCGStab;
  smoother        GaussSeidel;
 solver          PCG;
        preconditioner  DIC;
        tolerance       1e-08;
        relTol          0;

	minIter 	5;

    }

/*
     U
    {
        type            coupled;
        solver          PBiCCCG;
        preconditioner  DILU;
        tolerance       (1e-08 1e-08 1e-08);
        relTol          (0 0 0);
    }
*/

/*
	$U;
        tolerance       (1e-08 1e-08 1e-08);
        relTol          (0 0 0);
*/
//    }

    cellMotionU
          {
/*
        solver          GAMG;
        tolerance       1e-06;
        relTol          0;
        smoother        GaussSeidel;
        cacheAgglomeration true;
        nCellsInCoarsestLevel 10;
        agglomerator    faceAreaPair;
        mergeLevels     1;
*/

        solver          PCG;
        preconditioner  DIC;
        tolerance       1e-08;
        relTol          0;
	minIter		5;
    }
    "cellDisplacement.*"
    {
/*
        solver          GAMG;
        tolerance       1e-06;
        relTol          0;
        smoother        GaussSeidel;
        cacheAgglomeration true;
        nCellsInCoarsestLevel 10;
        agglomerator    faceAreaPair;
        mergeLevels     1;
*/

        solver          PCG;
        preconditioner  DIC;
        tolerance       1e-08;
        relTol          0;
	minIter		5;
    }
}

PIMPLE
{
	//If enable you will need to add UFinal
	momentumPredictor no;

	consistent	no;

	//If you set nOuterCorrectors to 1 is equivalent to piso    
        nOuterCorrectors 1;
	nCorrectors 0;
		nNonOrthogonalCorrectors 1;

	checkMeshCourantNo	yes;

}

relaxationFactors
{
    fields
    {
	".*"		0.7;	//0.7 crash in ESI - ORG OK
        //p               0.3;
    }
    equations
    {
	".*"		0.7;	//0.7 crash in ESI - ORG OK
        //U               0.7;
        //k               0.7;
        //omega           0.7;
    }
}

// ************************************************************************* //
