/*--------------------------------*- C++ -*----------------------------------*\
  =========                 |
  \\      /  F ield         | OpenFOAM: The Open Source CFD Toolbox
   \\    /   O peration     | Website:  https://openfoam.org
    \\  /    A nd           | Version:  8
     \\/     M anipulation  |
\*---------------------------------------------------------------------------*/
FoamFile
{
    version     2.0;
    format      ascii;
    class       vectorField;
    location    "0.0001";
    object      cf;
}
// * * * * * * * * * * * * * * * * * * * * * * * * * * * * * * * * * * * * * //


840
(
(-0.013954618 0.014324816 0)
(-0.013574856 0.014685197 0)
(-0.013185791 0.015035512 0)
(-0.012787688 0.015375524 0)
(-0.012380822 0.015704999 0)
(-0.011965471 0.016023709 0)
(-0.011541919 0.016331438 0)
(-0.011110457 0.016627974 0)
(-0.01067138 0.016913113 0)
(-0.01022499 0.017186661 0)
(-0.0097715915 0.017448431 0)
(-0.0093114963 0.017698242 0)
(-0.0088450195 0.017935924 0)
(-0.0083724807 0.018161313 0)
(-0.0078942039 0.018374255 0)
(-0.0074105168 0.018574605 0)
(-0.0069217508 0.018762225 0)
(-0.0064282411 0.018936985 0)
(-0.0059303257 0.019098768 0)
(-0.005428346 0.019247461 0)
(-0.004922646 0.019382962 0)
(-0.0044135721 0.019505179 0)
(-0.0039014736 0.019614029 0)
(-0.0033867011 0.019709436 0)
(-0.0028696075 0.019791335 0)
(-0.0023505473 0.01985967 0)
(-0.0018298762 0.019914394 0)
(-0.0013079509 0.01995547 0)
(-0.00078512926 0.01998287 0)
(-0.00026176956 0.019996573 0)
(-0.019996573 0.00026176956 0)
(-0.01998287 0.00078512926 0)
(-0.01995547 0.0013079509 0)
(-0.019914394 0.0018298762 0)
(-0.01985967 0.0023505473 0)
(-0.019791335 0.0028696076 0)
(-0.019709436 0.0033867011 0)
(-0.019614029 0.0039014736 0)
(-0.019505179 0.0044135721 0)
(-0.019382962 0.004922646 0)
(-0.019247461 0.005428346 0)
(-0.019098768 0.0059303257 0)
(-0.018936985 0.006428241 0)
(-0.018762225 0.0069217508 0)
(-0.018574605 0.0074105168 0)
(-0.018374255 0.0078942039 0)
(-0.018161313 0.0083724807 0)
(-0.017935924 0.0088450195 0)
(-0.017698242 0.0093114963 0)
(-0.017448431 0.0097715915 0)
(-0.017186661 0.01022499 0)
(-0.016913113 0.01067138 0)
(-0.016627974 0.011110457 0)
(-0.016331438 0.011541919 0)
(-0.016023709 0.011965471 0)
(-0.015704999 0.012380822 0)
(-0.015375524 0.012787688 0)
(-0.015035513 0.013185791 0)
(-0.014685196 0.013574856 0)
(-0.014324816 0.013954618 0)
(0.00037389811 0.02 0)
(0.0011344939 0.02 0)
(0.0019211271 0.02 0)
(0.0027346889 0.02 0)
(0.0035761013 0.02 0)
(0.0044463175 0.02 0)
(0.0053463237 0.02 0)
(0.0062771396 0.02 0)
(0.00723982 0.02 0)
(0.0082354557 0.02 0)
(0.0092651748 0.02 0)
(0.010330144 0.02 0)
(0.011431571 0.02 0)
(0.012570701 0.02 0)
(0.013748828 0.02 0)
(0.014967285 0.02 0)
(0.016227454 0.02 0)
(0.017530762 0.02 0)
(0.018878686 0.02 0)
(0.020272752 0.02 0)
(0.021714541 0.02 0)
(0.023205688 0.02 0)
(0.02474788 0.02 0)
(0.026342866 0.02 0)
(0.027992453 0.02 0)
(0.02969851 0.02 0)
(0.031462969 0.02 0)
(0.033287832 0.02 0)
(0.035175164 0.02 0)
(0.037127105 0.02 0)
(0.039145867 0.02 0)
(0.041233736 0.02 0)
(0.04339308 0.02 0)
(0.045626344 0.02 0)
(0.047936058 0.02 0)
(0.050324841 0.02 0)
(0.052795398 0.02 0)
(0.05535053 0.02 0)
(0.05799313 0.02 0)
(0.060726195 0.02 0)
(0.06355282 0.02 0)
(0.066476208 0.02 0)
(0.069499673 0.02 0)
(0.072626639 0.02 0)
(0.075860649 0.02 0)
(0.079205369 0.02 0)
(0.082664588 0.02 0)
(0.086242227 0.02 0)
(0.089942337 0.02 0)
(0.093769113 0.02 0)
(0.09772689 0.02 0)
(0.10182015 0.02 0)
(0.10605354 0.02 0)
(0.11043184 0.02 0)
(0.11496004 0.02 0)
(0.11964324 0.02 0)
(0.12448676 0.02 0)
(0.12949609 0.02 0)
(0.1346769 0.02 0)
(0.14003507 0.02 0)
(0.14557666 0.02 0)
(0.15130795 0.02 0)
(0.15723545 0.02 0)
(0.16336586 0.02 0)
(0.16970613 0.02 0)
(0.17626345 0.02 0)
(0.18304523 0.02 0)
(0.19005919 0.02 0)
(0.19731324 0.02 0)
(0.20481563 0.02 0)
(0.21257484 0.02 0)
(0.22059967 0.02 0)
(0.22889921 0.02 0)
(0.23748288 0.02 0)
(0.24636038 0.02 0)
(0.25554179 0.02 0)
(0.2650375 0.02 0)
(0.27485828 0.02 0)
(0.28501524 0.02 0)
(0.29551991 0.02 0)
(0.30638419 0.02 0)
(0.31762038 0.02 0)
(0.32924122 0.02 0)
(0.34125987 0.02 0)
(0.35368995 0.02 0)
(0.36654555 0.02 0)
(0.37984124 0.02 0)
(0.39359207 0.02 0)
(0.40781363 0.02 0)
(0.42252204 0.02 0)
(0.44433333 0.02 0)
(0.473 0.02 0)
(0.50166666 0.02 0)
(0.53033333 0.02 0)
(0.559 0.02 0)
(0.58766666 0.02 0)
(0.61633333 0.02 0)
(0.645 0.02 0)
(0.67366666 0.02 0)
(0.70233333 0.02 0)
(0.731 0.02 0)
(0.75966667 0.02 0)
(0.78833333 0.02 0)
(0.817 0.02 0)
(0.84566666 0.02 0)
(0.87433333 0.02 0)
(0.903 0.02 0)
(0.93166667 0.02 0)
(0.96033333 0.02 0)
(0.98899998 0.02 0)
(1.0176666 0.02 0)
(1.0463334 0.02 0)
(1.075 0.02 0)
(1.1036667 0.02 0)
(1.1323333 0.02 0)
(1.161 0.02 0)
(1.1896667 0.02 0)
(1.2183333 0.02 0)
(1.247 0.02 0)
(1.2756667 0.02 0)
(1.3043333 0.02 0)
(1.333 0.02 0)
(1.3616666 0.02 0)
(1.3903334 0.02 0)
(1.419 0.02 0)
(1.4476666 0.02 0)
(1.4763333 0.02 0)
(1.505 0.02 0)
(1.5336667 0.02 0)
(1.5623334 0.02 0)
(1.591 0.02 0)
(1.6196667 0.02 0)
(1.6483333 0.02 0)
(1.677 0.02 0)
(1.7056666 0.02 0)
(1.7343333 0.02 0)
(1.763 0.02 0)
(1.7916667 0.02 0)
(1.8203333 0.02 0)
(1.849 0.02 0)
(1.8776666 0.02 0)
(1.9063333 0.02 0)
(1.935 0.02 0)
(1.9636666 0.02 0)
(1.9923333 0.02 0)
(2.021 0.02 0)
(2.0496666 0.02 0)
(2.0783334 0.02 0)
(2.107 0.02 0)
(2.1356667 0.02 0)
(4.3139546 0.014324816 0)
(4.3135749 0.014685197 0)
(4.3131858 0.015035512 0)
(4.3127877 0.015375525 0)
(4.3123808 0.015704998 0)
(4.3119654 0.016023709 0)
(4.3115419 0.016331438 0)
(4.3111104 0.016627973 0)
(4.3106714 0.016913113 0)
(4.310225 0.017186661 0)
(4.3097716 0.017448431 0)
(4.3093115 0.017698242 0)
(4.308845 0.017935924 0)
(4.3083725 0.018161313 0)
(4.3078942 0.018374255 0)
(4.3074106 0.018574605 0)
(4.3069217 0.018762224 0)
(4.3064282 0.018936985 0)
(4.3059303 0.019098768 0)
(4.3054283 0.019247461 0)
(4.3049226 0.019382962 0)
(4.3044135 0.019505179 0)
(4.3039014 0.019614029 0)
(4.3033867 0.019709436 0)
(4.3028696 0.019791335 0)
(4.3023505 0.01985967 0)
(4.3018299 0.019914394 0)
(4.3013079 0.01995547 0)
(4.3007851 0.019982869 0)
(4.3002617 0.019996573 0)
(4.3199965 0.00026176956 0)
(4.3199828 0.00078512926 0)
(4.3199554 0.0013079509 0)
(4.3199144 0.0018298761 0)
(4.3198597 0.0023505473 0)
(4.3197914 0.0028696075 0)
(4.3197094 0.0033867011 0)
(4.319614 0.0039014735 0)
(4.3195052 0.0044135722 0)
(4.3193829 0.0049226459 0)
(4.3192474 0.005428346 0)
(4.3190988 0.0059303257 0)
(4.3189369 0.006428241 0)
(4.3187622 0.0069217508 0)
(4.3185746 0.0074105168 0)
(4.3183742 0.0078942039 0)
(4.3181613 0.0083724807 0)
(4.3179359 0.0088450195 0)
(4.3176982 0.0093114963 0)
(4.3174484 0.0097715915 0)
(4.3171866 0.01022499 0)
(4.3169131 0.01067138 0)
(4.3166279 0.011110457 0)
(4.3163314 0.011541919 0)
(4.3160237 0.011965471 0)
(4.315705 0.012380823 0)
(4.3153755 0.012787688 0)
(4.3150355 0.013185791 0)
(4.3146852 0.013574857 0)
(4.3143248 0.013954618 0)
(4.2996261 0.02 0)
(4.2988655 0.02 0)
(4.2980788 0.02 0)
(4.2972653 0.02 0)
(4.2964239 0.02 0)
(4.2955537 0.02 0)
(4.2946537 0.02 0)
(4.2937228 0.02 0)
(4.2927602 0.02 0)
(4.2917645 0.02 0)
(4.2907348 0.02 0)
(4.2896699 0.02 0)
(4.2885684 0.02 0)
(4.2874292 0.02 0)
(4.2862512 0.02 0)
(4.2850327 0.02 0)
(4.2837725 0.02 0)
(4.2824693 0.02 0)
(4.2811213 0.02 0)
(4.2797272 0.02 0)
(4.2782855 0.02 0)
(4.2767943 0.02 0)
(4.2752521 0.02 0)
(4.2736571 0.02 0)
(4.2720075 0.02 0)
(4.2703015 0.02 0)
(4.268537 0.02 0)
(4.2667122 0.02 0)
(4.2648248 0.02 0)
(4.2628729 0.02 0)
(4.2608541 0.02 0)
(4.2587663 0.02 0)
(4.2566069 0.02 0)
(4.2543736 0.02 0)
(4.252064 0.02 0)
(4.2496752 0.02 0)
(4.2472046 0.02 0)
(4.2446494 0.02 0)
(4.2420068 0.02 0)
(4.2392738 0.02 0)
(4.2364472 0.02 0)
(4.2335238 0.02 0)
(4.2305003 0.02 0)
(4.2273734 0.02 0)
(4.2241393 0.02 0)
(4.2207946 0.02 0)
(4.2173354 0.02 0)
(4.2137578 0.02 0)
(4.2100577 0.02 0)
(4.2062309 0.02 0)
(4.2022731 0.02 0)
(4.1981798 0.02 0)
(4.1939465 0.02 0)
(4.1895681 0.02 0)
(4.18504 0.02 0)
(4.1803568 0.02 0)
(4.1755132 0.02 0)
(4.1705039 0.02 0)
(4.1653231 0.02 0)
(4.159965 0.02 0)
(4.1544233 0.02 0)
(4.1486921 0.02 0)
(4.1427645 0.02 0)
(4.1366341 0.02 0)
(4.1302939 0.02 0)
(4.1237365 0.02 0)
(4.1169547 0.02 0)
(4.1099408 0.02 0)
(4.1026868 0.02 0)
(4.0951844 0.02 0)
(4.0874252 0.02 0)
(4.0794004 0.02 0)
(4.0711008 0.02 0)
(4.0625171 0.02 0)
(4.0536397 0.02 0)
(4.0444582 0.02 0)
(4.0349625 0.02 0)
(4.0251417 0.02 0)
(4.0149847 0.02 0)
(4.0044801 0.02 0)
(3.9936158 0.02 0)
(3.9823796 0.02 0)
(3.9707588 0.02 0)
(3.9587401 0.02 0)
(3.94631 0.02 0)
(3.9334545 0.02 0)
(3.9201588 0.02 0)
(3.9064079 0.02 0)
(3.8921863 0.02 0)
(3.877478 0.02 0)
(3.8556666 0.02 0)
(3.827 0.02 0)
(3.7983333 0.02 0)
(3.7696667 0.02 0)
(3.741 0.02 0)
(3.7123333 0.02 0)
(3.6836666 0.02 0)
(3.655 0.02 0)
(3.6263333 0.02 0)
(3.5976667 0.02 0)
(3.569 0.02 0)
(3.5403333 0.02 0)
(3.5116666 0.02 0)
(3.483 0.02 0)
(3.4543333 0.02 0)
(3.4256666 0.02 0)
(3.397 0.02 0)
(3.3683334 0.02 0)
(3.3396666 0.02 0)
(3.311 0.02 0)
(3.2823334 0.02 0)
(3.2536666 0.02 0)
(3.225 0.02 0)
(3.1963333 0.02 0)
(3.1676666 0.02 0)
(3.139 0.02 0)
(3.1103334 0.02 0)
(3.0816667 0.02 0)
(3.053 0.02 0)
(3.0243334 0.02 0)
(2.9956666 0.02 0)
(2.967 0.02 0)
(2.9383333 0.02 0)
(2.9096667 0.02 0)
(2.881 0.02 0)
(2.8523333 0.02 0)
(2.8236666 0.02 0)
(2.795 0.02 0)
(2.7663334 0.02 0)
(2.7376666 0.02 0)
(2.709 0.02 0)
(2.6803333 0.02 0)
(2.6516667 0.02 0)
(2.623 0.02 0)
(2.5943333 0.02 0)
(2.5656666 0.02 0)
(2.537 0.02 0)
(2.5083334 0.02 0)
(2.4796667 0.02 0)
(2.451 0.02 0)
(2.4223333 0.02 0)
(2.3936667 0.02 0)
(2.365 0.02 0)
(2.3363334 0.02 0)
(2.3076666 0.02 0)
(2.279 0.02 0)
(2.2503334 0.02 0)
(2.2216667 0.02 0)
(2.193 0.02 0)
(2.1643333 0.02 0)
(-0.013954618 -0.014324816 0)
(-0.013574856 -0.014685196 0)
(-0.013185791 -0.015035513 0)
(-0.012787688 -0.015375524 0)
(-0.012380823 -0.015704999 0)
(-0.011965471 -0.016023709 0)
(-0.011541919 -0.016331438 0)
(-0.011110457 -0.016627973 0)
(-0.01067138 -0.016913113 0)
(-0.01022499 -0.017186661 0)
(-0.0097715915 -0.017448431 0)
(-0.0093114963 -0.017698242 0)
(-0.0088450195 -0.017935924 0)
(-0.0083724807 -0.018161313 0)
(-0.0078942039 -0.018374255 0)
(-0.0074105168 -0.018574605 0)
(-0.0069217509 -0.018762225 0)
(-0.006428241 -0.018936985 0)
(-0.0059303257 -0.019098768 0)
(-0.005428346 -0.019247461 0)
(-0.0049226459 -0.019382962 0)
(-0.0044135721 -0.019505179 0)
(-0.0039014736 -0.019614029 0)
(-0.0033867011 -0.019709436 0)
(-0.0028696075 -0.019791335 0)
(-0.0023505473 -0.01985967 0)
(-0.0018298762 -0.019914394 0)
(-0.0013079509 -0.01995547 0)
(-0.00078512926 -0.01998287 0)
(-0.00026176956 -0.019996573 0)
(-0.019996573 -0.00026176956 0)
(-0.01998287 -0.00078512926 0)
(-0.01995547 -0.0013079509 0)
(-0.019914394 -0.0018298762 0)
(-0.01985967 -0.0023505473 0)
(-0.019791335 -0.0028696075 0)
(-0.019709436 -0.0033867011 0)
(-0.019614029 -0.0039014736 0)
(-0.019505179 -0.0044135721 0)
(-0.019382962 -0.004922646 0)
(-0.019247461 -0.005428346 0)
(-0.019098768 -0.0059303257 0)
(-0.018936985 -0.0064282411 0)
(-0.018762225 -0.0069217508 0)
(-0.018574605 -0.0074105168 0)
(-0.018374255 -0.0078942039 0)
(-0.018161313 -0.0083724807 0)
(-0.017935924 -0.0088450195 0)
(-0.017698242 -0.0093114963 0)
(-0.017448431 -0.0097715915 0)
(-0.017186661 -0.01022499 0)
(-0.016913113 -0.01067138 0)
(-0.016627973 -0.011110457 0)
(-0.016331438 -0.011541919 0)
(-0.016023709 -0.011965471 0)
(-0.015704999 -0.012380822 0)
(-0.015375524 -0.012787688 0)
(-0.015035513 -0.013185791 0)
(-0.014685196 -0.013574856 0)
(-0.014324816 -0.013954618 0)
(0.00037389811 -0.02 0)
(0.0011344939 -0.02 0)
(0.0019211271 -0.02 0)
(0.0027346889 -0.02 0)
(0.0035761013 -0.02 0)
(0.0044463175 -0.02 0)
(0.0053463237 -0.02 0)
(0.0062771396 -0.02 0)
(0.00723982 -0.02 0)
(0.0082354557 -0.02 0)
(0.0092651748 -0.02 0)
(0.010330144 -0.02 0)
(0.011431571 -0.02 0)
(0.012570701 -0.02 0)
(0.013748828 -0.02 0)
(0.014967285 -0.02 0)
(0.016227454 -0.02 0)
(0.017530762 -0.02 0)
(0.018878686 -0.02 0)
(0.020272752 -0.02 0)
(0.021714541 -0.02 0)
(0.023205688 -0.02 0)
(0.02474788 -0.02 0)
(0.026342866 -0.02 0)
(0.027992453 -0.02 0)
(0.029698509 -0.02 0)
(0.03146297 -0.02 0)
(0.033287832 -0.02 0)
(0.035175164 -0.02 0)
(0.037127105 -0.02 0)
(0.039145867 -0.02 0)
(0.041233736 -0.02 0)
(0.04339308 -0.02 0)
(0.045626344 -0.02 0)
(0.047936058 -0.02 0)
(0.050324841 -0.02 0)
(0.052795398 -0.02 0)
(0.05535053 -0.02 0)
(0.05799313 -0.02 0)
(0.060726195 -0.02 0)
(0.06355282 -0.02 0)
(0.066476208 -0.02 0)
(0.069499673 -0.02 0)
(0.072626638 -0.02 0)
(0.075860649 -0.02 0)
(0.079205369 -0.02 0)
(0.082664588 -0.02 0)
(0.086242227 -0.02 0)
(0.089942337 -0.02 0)
(0.093769113 -0.02 0)
(0.09772689 -0.02 0)
(0.10182015 -0.02 0)
(0.10605354 -0.02 0)
(0.11043184 -0.02 0)
(0.11496004 -0.02 0)
(0.11964324 -0.02 0)
(0.12448676 -0.02 0)
(0.12949609 -0.02 0)
(0.1346769 -0.02 0)
(0.14003507 -0.02 0)
(0.14557666 -0.02 0)
(0.15130795 -0.02 0)
(0.15723545 -0.02 0)
(0.16336586 -0.02 0)
(0.16970613 -0.02 0)
(0.17626345 -0.02 0)
(0.18304523 -0.02 0)
(0.19005919 -0.02 0)
(0.19731324 -0.02 0)
(0.20481563 -0.02 0)
(0.21257484 -0.02 0)
(0.22059967 -0.02 0)
(0.22889921 -0.02 0)
(0.23748287 -0.02 0)
(0.24636038 -0.02 0)
(0.25554179 -0.02 0)
(0.2650375 -0.02 0)
(0.27485828 -0.02 0)
(0.28501525 -0.02 0)
(0.29551992 -0.02 0)
(0.30638419 -0.02 0)
(0.31762038 -0.02 0)
(0.32924122 -0.02 0)
(0.34125987 -0.02 0)
(0.35368995 -0.02 0)
(0.36654555 -0.02 0)
(0.37984123 -0.02 0)
(0.39359207 -0.02 0)
(0.40781363 -0.02 0)
(0.42252204 -0.02 0)
(0.44433333 -0.02 0)
(0.473 -0.02 0)
(0.50166666 -0.02 0)
(0.53033333 -0.02 0)
(0.559 -0.02 0)
(0.58766666 -0.02 0)
(0.61633333 -0.02 0)
(0.645 -0.02 0)
(0.67366667 -0.02 0)
(0.70233333 -0.02 0)
(0.731 -0.02 0)
(0.75966666 -0.02 0)
(0.78833333 -0.02 0)
(0.817 -0.02 0)
(0.84566666 -0.02 0)
(0.87433333 -0.02 0)
(0.903 -0.02 0)
(0.93166666 -0.02 0)
(0.96033333 -0.02 0)
(0.98899998 -0.02 0)
(1.0176666 -0.02 0)
(1.0463334 -0.02 0)
(1.075 -0.02 0)
(1.1036667 -0.02 0)
(1.1323333 -0.02 0)
(1.161 -0.02 0)
(1.1896666 -0.02 0)
(1.2183333 -0.02 0)
(1.247 -0.02 0)
(1.2756667 -0.02 0)
(1.3043333 -0.02 0)
(1.333 -0.02 0)
(1.3616666 -0.02 0)
(1.3903334 -0.02 0)
(1.419 -0.02 0)
(1.4476666 -0.02 0)
(1.4763333 -0.02 0)
(1.505 -0.02 0)
(1.5336667 -0.02 0)
(1.5623334 -0.02 0)
(1.591 -0.02 0)
(1.6196666 -0.02 0)
(1.6483333 -0.02 0)
(1.677 -0.02 0)
(1.7056666 -0.02 0)
(1.7343334 -0.02 0)
(1.763 -0.02 0)
(1.7916667 -0.02 0)
(1.8203334 -0.02 0)
(1.849 -0.02 0)
(1.8776666 -0.02 0)
(1.9063333 -0.02 0)
(1.935 -0.02 0)
(1.9636666 -0.02 0)
(1.9923333 -0.02 0)
(2.021 -0.02 0)
(2.0496666 -0.02 0)
(2.0783334 -0.02 0)
(2.107 -0.02 0)
(2.1356666 -0.02 0)
(4.3139546 -0.014324816 0)
(4.3135749 -0.014685197 0)
(4.3131858 -0.015035512 0)
(4.3127877 -0.015375524 0)
(4.3123808 -0.015704998 0)
(4.3119654 -0.016023709 0)
(4.3115419 -0.016331438 0)
(4.3111104 -0.016627974 0)
(4.3106714 -0.016913113 0)
(4.310225 -0.017186661 0)
(4.3097716 -0.017448431 0)
(4.3093115 -0.017698242 0)
(4.308845 -0.017935924 0)
(4.3083725 -0.018161313 0)
(4.3078942 -0.018374255 0)
(4.3074106 -0.018574605 0)
(4.3069217 -0.018762224 0)
(4.3064282 -0.018936986 0)
(4.3059303 -0.019098768 0)
(4.3054283 -0.019247461 0)
(4.3049226 -0.019382962 0)
(4.3044135 -0.019505179 0)
(4.3039014 -0.019614029 0)
(4.3033867 -0.019709436 0)
(4.3028696 -0.019791335 0)
(4.3023505 -0.01985967 0)
(4.3018299 -0.019914394 0)
(4.3013079 -0.01995547 0)
(4.3007851 -0.019982869 0)
(4.3002617 -0.019996573 0)
(4.3199965 -0.00026176956 0)
(4.3199828 -0.00078512926 0)
(4.3199554 -0.0013079509 0)
(4.3199144 -0.0018298761 0)
(4.3198597 -0.0023505473 0)
(4.3197914 -0.0028696075 0)
(4.3197095 -0.0033867011 0)
(4.319614 -0.0039014736 0)
(4.3195052 -0.0044135722 0)
(4.3193829 -0.0049226459 0)
(4.3192474 -0.005428346 0)
(4.3190988 -0.0059303257 0)
(4.3189369 -0.006428241 0)
(4.3187622 -0.0069217509 0)
(4.3185746 -0.0074105168 0)
(4.3183742 -0.0078942039 0)
(4.3181613 -0.0083724807 0)
(4.3179359 -0.0088450195 0)
(4.3176982 -0.0093114963 0)
(4.3174484 -0.0097715915 0)
(4.3171866 -0.01022499 0)
(4.3169131 -0.01067138 0)
(4.3166279 -0.011110457 0)
(4.3163314 -0.011541919 0)
(4.3160237 -0.011965471 0)
(4.315705 -0.012380822 0)
(4.3153755 -0.012787688 0)
(4.3150355 -0.013185791 0)
(4.3146852 -0.013574856 0)
(4.3143248 -0.013954618 0)
(4.2996261 -0.02 0)
(4.2988655 -0.02 0)
(4.2980788 -0.02 0)
(4.2972653 -0.02 0)
(4.2964239 -0.02 0)
(4.2955537 -0.02 0)
(4.2946537 -0.02 0)
(4.2937228 -0.02 0)
(4.2927602 -0.02 0)
(4.2917645 -0.02 0)
(4.2907348 -0.02 0)
(4.2896699 -0.02 0)
(4.2885684 -0.02 0)
(4.2874292 -0.02 0)
(4.2862512 -0.02 0)
(4.2850327 -0.02 0)
(4.2837725 -0.02 0)
(4.2824693 -0.02 0)
(4.2811213 -0.02 0)
(4.2797273 -0.02 0)
(4.2782855 -0.02 0)
(4.2767943 -0.02 0)
(4.2752521 -0.02 0)
(4.2736571 -0.02 0)
(4.2720075 -0.02 0)
(4.2703015 -0.02 0)
(4.268537 -0.02 0)
(4.2667122 -0.02 0)
(4.2648248 -0.02 0)
(4.2628729 -0.02 0)
(4.2608541 -0.02 0)
(4.2587663 -0.02 0)
(4.256607 -0.02 0)
(4.2543736 -0.02 0)
(4.252064 -0.02 0)
(4.2496752 -0.02 0)
(4.2472046 -0.02 0)
(4.2446494 -0.02 0)
(4.2420068 -0.02 0)
(4.2392738 -0.02 0)
(4.2364472 -0.02 0)
(4.2335238 -0.02 0)
(4.2305003 -0.02 0)
(4.2273734 -0.02 0)
(4.2241393 -0.02 0)
(4.2207946 -0.02 0)
(4.2173354 -0.02 0)
(4.2137578 -0.02 0)
(4.2100577 -0.02 0)
(4.2062309 -0.02 0)
(4.2022731 -0.02 0)
(4.1981798 -0.02 0)
(4.1939465 -0.02 0)
(4.1895681 -0.02 0)
(4.18504 -0.02 0)
(4.1803568 -0.02 0)
(4.1755133 -0.02 0)
(4.1705039 -0.02 0)
(4.1653231 -0.02 0)
(4.159965 -0.02 0)
(4.1544233 -0.02 0)
(4.148692 -0.02 0)
(4.1427645 -0.02 0)
(4.1366341 -0.02 0)
(4.1302939 -0.02 0)
(4.1237366 -0.02 0)
(4.1169547 -0.02 0)
(4.1099408 -0.02 0)
(4.1026868 -0.02 0)
(4.0951844 -0.02 0)
(4.0874252 -0.02 0)
(4.0794004 -0.02 0)
(4.0711008 -0.02 0)
(4.0625171 -0.02 0)
(4.0536397 -0.02 0)
(4.0444582 -0.02 0)
(4.0349625 -0.02 0)
(4.0251417 -0.02 0)
(4.0149847 -0.02 0)
(4.0044801 -0.02 0)
(3.9936158 -0.02 0)
(3.9823796 -0.02 0)
(3.9707588 -0.02 0)
(3.9587401 -0.02 0)
(3.94631 -0.02 0)
(3.9334545 -0.02 0)
(3.9201588 -0.02 0)
(3.9064079 -0.02 0)
(3.8921864 -0.02 0)
(3.8774779 -0.02 0)
(3.8556667 -0.02 0)
(3.827 -0.02 0)
(3.7983333 -0.02 0)
(3.7696667 -0.02 0)
(3.741 -0.02 0)
(3.7123333 -0.02 0)
(3.6836667 -0.02 0)
(3.655 -0.02 0)
(3.6263333 -0.02 0)
(3.5976667 -0.02 0)
(3.569 -0.02 0)
(3.5403333 -0.02 0)
(3.5116667 -0.02 0)
(3.483 -0.02 0)
(3.4543334 -0.02 0)
(3.4256667 -0.02 0)
(3.397 -0.02 0)
(3.3683334 -0.02 0)
(3.3396666 -0.02 0)
(3.311 -0.02 0)
(3.2823334 -0.02 0)
(3.2536666 -0.02 0)
(3.225 -0.02 0)
(3.1963334 -0.02 0)
(3.1676666 -0.02 0)
(3.139 -0.02 0)
(3.1103333 -0.02 0)
(3.0816667 -0.02 0)
(3.053 -0.02 0)
(3.0243334 -0.02 0)
(2.9956666 -0.02 0)
(2.967 -0.02 0)
(2.9383333 -0.02 0)
(2.9096667 -0.02 0)
(2.881 -0.02 0)
(2.8523333 -0.02 0)
(2.8236667 -0.02 0)
(2.795 -0.02 0)
(2.7663334 -0.02 0)
(2.7376667 -0.02 0)
(2.709 -0.02 0)
(2.6803334 -0.02 0)
(2.6516667 -0.02 0)
(2.623 -0.02 0)
(2.5943333 -0.02 0)
(2.5656666 -0.02 0)
(2.537 -0.02 0)
(2.5083334 -0.02 0)
(2.4796667 -0.02 0)
(2.451 -0.02 0)
(2.4223333 -0.02 0)
(2.3936667 -0.02 0)
(2.365 -0.02 0)
(2.3363333 -0.02 0)
(2.3076666 -0.02 0)
(2.279 -0.02 0)
(2.2503334 -0.02 0)
(2.2216667 -0.02 0)
(2.193 -0.02 0)
(2.1643334 -0.02 0)
)


// ************************************************************************* //
