/*--------------------------------*- C++ -*----------------------------------*\
  =========                 |
  \\      /  F ield         | OpenFOAM: The Open Source CFD Toolbox
   \\    /   O peration     | Website:  https://openfoam.org
    \\  /    A nd           | Version:  8
     \\/     M anipulation  |
\*---------------------------------------------------------------------------*/
FoamFile
{
    version     2.0;
    format      ascii;
    class       scalarField;
    location    "0.0001";
    object      magsf;
}
// * * * * * * * * * * * * * * * * * * * * * * * * * * * * * * * * * * * * * //


840
(
1.0471678e-05
1.047167e-05
1.0471692e-05
1.0471688e-05
1.0471666e-05
1.0471695e-05
1.0471673e-05
1.0471669e-05
1.0471687e-05
1.0471674e-05
1.0471678e-05
1.0471687e-05
1.0471677e-05
1.0471677e-05
1.0471676e-05
1.047168e-05
1.047168e-05
1.0471683e-05
1.0471678e-05
1.0471676e-05
1.0471682e-05
1.0471678e-05
1.047168e-05
1.0471678e-05
1.047168e-05
1.0471679e-05
1.0471678e-05
1.0471681e-05
1.0471678e-05
1.0471679e-05
1.0471679e-05
1.0471678e-05
1.0471681e-05
1.0471678e-05
1.0471679e-05
1.047168e-05
1.0471678e-05
1.047168e-05
1.0471678e-05
1.0471682e-05
1.0471676e-05
1.0471678e-05
1.0471683e-05
1.047168e-05
1.047168e-05
1.0471676e-05
1.0471677e-05
1.0471677e-05
1.0471687e-05
1.0471678e-05
1.0471674e-05
1.0471687e-05
1.0471669e-05
1.0471673e-05
1.0471695e-05
1.0471666e-05
1.0471688e-05
1.0471692e-05
1.047167e-05
1.0471678e-05
1.4955925e-05
1.5467907e-05
1.5997418e-05
1.6545056e-05
1.7111438e-05
1.7697212e-05
1.8303036e-05
1.8929602e-05
1.9577614e-05
2.0247812e-05
2.0940952e-05
2.1657828e-05
2.239922e-05
2.316602e-05
2.395904e-05
2.477924e-05
2.562752e-05
2.65048e-05
2.741214e-05
2.835052e-05
2.932106e-05
3.03248e-05
3.13629e-05
3.243654e-05
3.354692e-05
3.469534e-05
3.588306e-05
3.711144e-05
3.838186e-05
3.969578e-05
4.105468e-05
4.24601e-05
4.391364e-05
4.541692e-05
4.697166e-05
4.857964e-05
5.024266e-05
5.19626e-05
5.374142e-05
5.558116e-05
5.748384e-05
5.94517e-05
6.148688e-05
6.359174e-05
6.576868e-05
6.802012e-05
7.034866e-05
7.275686e-05
7.524756e-05
7.782348e-05
8.04876e-05
8.3243e-05
8.60924e-05
8.90398e-05
9.20878e-05
9.52404e-05
9.85006e-05
0.0001018724
0.00010536
0.0001089668
0.0001126968
0.000116555
0.0001205448
0.0001246716
0.0001289392
0.0001333534
0.0001379182
0.0001426398
0.0001475226
0.0001525728
0.0001577956
0.0001631976
0.0001687842
0.0001745622
0.000180538
0.0001867182
0.0001931102
0.000199721
0.0002065578
0.000213629
0.000220942
0.0002285056
0.000236328
0.000244418
0.0002527852
0.0002614388
0.0002703886
0.0002796448
0.0002892178
0.0002991184
0.0005733334
0.0005733332
0.0005733334
0.0005733334
0.0005733332
0.0005733334
0.0005733334
0.0005733332
0.0005733334
0.0005733334
0.0005733332
0.0005733334
0.0005733334
0.0005733332
0.0005733334
0.0005733334
0.0005733332
0.0005733334
0.0005733334
0.0005733326
0.000573334
0.000573334
0.000573332
0.000573334
0.000573334
0.000573332
0.000573334
0.000573334
0.000573332
0.000573334
0.000573334
0.000573332
0.000573334
0.000573334
0.000573332
0.000573334
0.000573334
0.000573332
0.000573334
0.000573334
0.000573332
0.000573334
0.000573334
0.000573332
0.000573334
0.000573334
0.000573332
0.000573334
0.000573334
0.000573332
0.000573334
0.000573334
0.000573332
0.000573334
0.000573334
0.000573332
0.000573334
0.000573334
0.000573332
0.000573334
1.0471047e-05
1.0471978e-05
1.047091e-05
1.0472411e-05
1.0471995e-05
1.047131e-05
1.0471999e-05
1.0470938e-05
1.0471518e-05
1.0472172e-05
1.0471242e-05
1.0472299e-05
1.0471889e-05
1.0471871e-05
1.0470493e-05
1.0471498e-05
1.0473142e-05
1.0471731e-05
1.0471044e-05
1.0471172e-05
1.0472188e-05
1.0472191e-05
1.0471219e-05
1.0471256e-05
1.0472359e-05
1.0470591e-05
1.0471927e-05
1.0472419e-05
1.0472072e-05
1.0470897e-05
1.0471692e-05
1.0471635e-05
1.0471754e-05
1.0471663e-05
1.0471585e-05
1.0471594e-05
1.0471786e-05
1.04715e-05
1.0471886e-05
1.0471771e-05
1.0471562e-05
1.0471892e-05
1.0471677e-05
1.0471535e-05
1.0471547e-05
1.0471826e-05
1.0471652e-05
1.0471898e-05
1.0471789e-05
1.0471346e-05
1.0471622e-05
1.0471773e-05
1.0471814e-05
1.0471857e-05
1.0470809e-05
1.0472322e-05
1.0471675e-05
1.0471388e-05
1.0471547e-05
1.0472348e-05
1.4956e-05
1.5468e-05
1.5998e-05
1.6544e-05
1.7112e-05
1.7696e-05
1.8304e-05
1.893e-05
1.9578e-05
2.0248e-05
2.094e-05
2.1658e-05
2.24e-05
2.3166e-05
2.3958e-05
2.478e-05
2.5626e-05
2.6506e-05
2.7412e-05
2.835e-05
2.9322e-05
3.0324e-05
3.1364e-05
3.2436e-05
3.3546e-05
3.4696e-05
3.5882e-05
3.7112e-05
3.8382e-05
3.9696e-05
4.1054e-05
4.246e-05
4.3914e-05
4.5418e-05
4.697e-05
4.858e-05
5.0244e-05
5.1962e-05
5.3742e-05
5.558e-05
5.7484e-05
5.9452e-05
6.1486e-05
6.3592e-05
6.577e-05
6.802e-05
7.0348e-05
7.2756e-05
7.5248e-05
7.7824e-05
8.0488e-05
8.3242e-05
8.6094e-05
8.9038e-05
9.2088e-05
9.524e-05
9.8502e-05
0.000101872
0.00010536
0.000108966
0.000112698
0.000116554
0.000120546
0.00012467
0.00012894
0.000133354
0.000137918
0.00014264
0.000147522
0.000152572
0.000157796
0.000163198
0.000168784
0.000174562
0.000180538
0.000186718
0.000193112
0.00019972
0.000206558
0.000213628
0.000220942
0.000228506
0.000236328
0.000244418
0.000252786
0.000261438
0.00027039
0.000279644
0.000289218
0.000299118
0.000573334
0.000573332
0.000573334
0.000573334
0.000573332
0.000573334
0.000573334
0.000573332
0.000573334
0.000573334
0.000573332
0.000573334
0.000573334
0.000573332
0.000573334
0.000573334
0.000573332
0.000573334
0.000573334
0.000573332
0.000573334
0.000573334
0.000573332
0.000573334
0.000573334
0.000573332
0.000573334
0.000573334
0.000573332
0.000573334
0.000573334
0.000573332
0.000573334
0.000573334
0.000573332
0.000573334
0.000573334
0.000573332
0.000573334
0.000573334
0.000573332
0.000573334
0.000573334
0.000573332
0.000573334
0.000573334
0.000573332
0.000573334
0.000573334
0.000573332
0.000573334
0.000573334
0.000573332
0.000573334
0.000573334
0.000573332
0.000573334
0.000573334
0.000573332
0.000573334
1.0471678e-05
1.047167e-05
1.0471692e-05
1.0471688e-05
1.0471666e-05
1.0471695e-05
1.0471673e-05
1.0471669e-05
1.0471687e-05
1.0471674e-05
1.0471678e-05
1.0471687e-05
1.0471677e-05
1.0471677e-05
1.0471676e-05
1.047168e-05
1.047168e-05
1.0471683e-05
1.0471678e-05
1.0471676e-05
1.0471682e-05
1.0471678e-05
1.047168e-05
1.0471678e-05
1.047168e-05
1.0471679e-05
1.0471678e-05
1.0471681e-05
1.0471678e-05
1.0471679e-05
1.0471679e-05
1.0471678e-05
1.0471681e-05
1.0471678e-05
1.0471679e-05
1.047168e-05
1.0471678e-05
1.047168e-05
1.0471678e-05
1.0471682e-05
1.0471676e-05
1.0471678e-05
1.0471683e-05
1.047168e-05
1.047168e-05
1.0471676e-05
1.0471677e-05
1.0471677e-05
1.0471687e-05
1.0471678e-05
1.0471674e-05
1.0471687e-05
1.0471669e-05
1.0471673e-05
1.0471695e-05
1.0471666e-05
1.0471688e-05
1.0471692e-05
1.047167e-05
1.0471678e-05
1.4955925e-05
1.5467907e-05
1.5997418e-05
1.6545056e-05
1.7111438e-05
1.7697212e-05
1.8303036e-05
1.8929602e-05
1.9577614e-05
2.0247812e-05
2.0940952e-05
2.1657828e-05
2.239922e-05
2.316602e-05
2.395904e-05
2.477924e-05
2.562752e-05
2.65048e-05
2.741214e-05
2.835052e-05
2.932106e-05
3.03248e-05
3.13629e-05
3.243654e-05
3.354692e-05
3.469534e-05
3.588306e-05
3.711144e-05
3.838186e-05
3.969578e-05
4.105468e-05
4.24601e-05
4.391364e-05
4.541692e-05
4.697166e-05
4.857964e-05
5.024266e-05
5.19626e-05
5.374142e-05
5.558116e-05
5.748384e-05
5.94517e-05
6.148688e-05
6.359174e-05
6.576868e-05
6.802012e-05
7.034866e-05
7.275686e-05
7.524756e-05
7.782348e-05
8.04876e-05
8.3243e-05
8.60924e-05
8.90398e-05
9.20878e-05
9.52404e-05
9.85006e-05
0.0001018724
0.00010536
0.0001089668
0.0001126968
0.000116555
0.0001205448
0.0001246716
0.0001289392
0.0001333534
0.0001379182
0.0001426398
0.0001475226
0.0001525728
0.0001577956
0.0001631976
0.0001687842
0.0001745622
0.000180538
0.0001867182
0.0001931102
0.000199721
0.0002065578
0.000213629
0.000220942
0.0002285056
0.000236328
0.000244418
0.0002527852
0.0002614388
0.0002703886
0.0002796448
0.0002892178
0.0002991184
0.0005733334
0.0005733332
0.0005733334
0.0005733334
0.0005733332
0.0005733334
0.0005733334
0.0005733332
0.0005733334
0.0005733334
0.0005733332
0.0005733334
0.0005733334
0.0005733332
0.0005733334
0.0005733334
0.0005733332
0.0005733334
0.0005733334
0.0005733326
0.000573334
0.000573334
0.000573332
0.000573334
0.000573334
0.000573332
0.000573334
0.000573334
0.000573332
0.000573334
0.000573334
0.000573332
0.000573334
0.000573334
0.000573332
0.000573334
0.000573334
0.000573332
0.000573334
0.000573334
0.000573332
0.000573334
0.000573334
0.000573332
0.000573334
0.000573334
0.000573332
0.000573334
0.000573334
0.000573332
0.000573334
0.000573334
0.000573332
0.000573334
0.000573334
0.000573332
0.000573334
0.000573334
0.000573332
0.000573334
1.0471047e-05
1.0471978e-05
1.047091e-05
1.0472411e-05
1.0471995e-05
1.047131e-05
1.0471999e-05
1.0470938e-05
1.0471518e-05
1.0472172e-05
1.0471242e-05
1.0472299e-05
1.0471889e-05
1.0471871e-05
1.0470493e-05
1.0471498e-05
1.0473142e-05
1.0471731e-05
1.0471044e-05
1.0471172e-05
1.0472188e-05
1.0472191e-05
1.0471219e-05
1.0471256e-05
1.0472359e-05
1.0470591e-05
1.0471927e-05
1.0472419e-05
1.0472072e-05
1.0470897e-05
1.0471692e-05
1.0471635e-05
1.0471754e-05
1.0471663e-05
1.0471585e-05
1.0471594e-05
1.0471786e-05
1.04715e-05
1.0471886e-05
1.0471771e-05
1.0471562e-05
1.0471892e-05
1.0471677e-05
1.0471535e-05
1.0471547e-05
1.0471826e-05
1.0471652e-05
1.0471898e-05
1.0471789e-05
1.0471346e-05
1.0471622e-05
1.0471773e-05
1.0471814e-05
1.0471857e-05
1.0470809e-05
1.0472322e-05
1.0471675e-05
1.0471388e-05
1.0471547e-05
1.0472348e-05
1.4956e-05
1.5468e-05
1.5998e-05
1.6544e-05
1.7112e-05
1.7696e-05
1.8304e-05
1.893e-05
1.9578e-05
2.0248e-05
2.094e-05
2.1658e-05
2.24e-05
2.3166e-05
2.3958e-05
2.478e-05
2.5626e-05
2.6506e-05
2.7412e-05
2.835e-05
2.9322e-05
3.0324e-05
3.1364e-05
3.2436e-05
3.3546e-05
3.4696e-05
3.5882e-05
3.7112e-05
3.8382e-05
3.9696e-05
4.1054e-05
4.246e-05
4.3914e-05
4.5418e-05
4.697e-05
4.858e-05
5.0244e-05
5.1962e-05
5.3742e-05
5.558e-05
5.7484e-05
5.9452e-05
6.1486e-05
6.3592e-05
6.577e-05
6.802e-05
7.0348e-05
7.2756e-05
7.5248e-05
7.7824e-05
8.0488e-05
8.3242e-05
8.6094e-05
8.9038e-05
9.2088e-05
9.524e-05
9.8502e-05
0.000101872
0.00010536
0.000108966
0.000112698
0.000116554
0.000120546
0.00012467
0.00012894
0.000133354
0.000137918
0.00014264
0.000147522
0.000152572
0.000157796
0.000163198
0.000168784
0.000174562
0.000180538
0.000186718
0.000193112
0.00019972
0.000206558
0.000213628
0.000220942
0.000228506
0.000236328
0.000244418
0.000252786
0.000261438
0.00027039
0.000279644
0.000289218
0.000299118
0.000573334
0.000573332
0.000573334
0.000573334
0.000573332
0.000573334
0.000573334
0.000573332
0.000573334
0.000573334
0.000573332
0.000573334
0.000573334
0.000573332
0.000573334
0.000573334
0.000573332
0.000573334
0.000573334
0.000573332
0.000573334
0.000573334
0.000573332
0.000573334
0.000573334
0.000573332
0.000573334
0.000573334
0.000573332
0.000573334
0.000573334
0.000573332
0.000573334
0.000573334
0.000573332
0.000573334
0.000573334
0.000573332
0.000573334
0.000573334
0.000573332
0.000573334
0.000573334
0.000573332
0.000573334
0.000573334
0.000573332
0.000573334
0.000573334
0.000573332
0.000573334
0.000573334
0.000573332
0.000573334
0.000573334
0.000573332
0.000573334
0.000573334
0.000573332
0.000573334
)


// ************************************************************************* //
