/*--------------------------------*- C++ -*----------------------------------*\
  =========                 |
  \\      /  F ield         | OpenFOAM: The Open Source CFD Toolbox
   \\    /   O peration     | Website:  https://openfoam.org
    \\  /    A nd           | Version:  8
     \\/     M anipulation  |
\*---------------------------------------------------------------------------*/
FoamFile
{
    version     2.0;
    format      ascii;
    class       vectorField;
    location    "0.0001";
    object      sf;
}
// * * * * * * * * * * * * * * * * * * * * * * * * * * * * * * * * * * * * * //


840
(
(7.30704e-06 -7.50088e-06 6.6174449e-24)
(7.10818e-06 -7.68958e-06 -6.6174449e-24)
(6.90446e-06 -7.87304e-06 -6.6174449e-24)
(6.69602e-06 -8.05106e-06 6.6174449e-24)
(6.48294e-06 -8.22358e-06 0)
(6.26548e-06 -8.39048e-06 0)
(6.04368e-06 -8.5516e-06 0)
(5.81774e-06 -8.70688e-06 0)
(5.58784e-06 -8.8562e-06 6.6174449e-24)
(5.3541e-06 -8.99942e-06 0)
(5.11668e-06 -9.1365e-06 -3.3087225e-24)
(4.87578e-06 -9.267308e-06 0)
(4.6315e-06 -9.391764e-06 0)
(4.38406e-06 -9.509786e-06 0)
(4.13362e-06 -9.621288e-06 0)
(3.88036e-06 -9.726196e-06 3.3087225e-24)
(3.62442e-06 -9.824442e-06 0)
(3.36602e-06 -9.91595e-06 0)
(3.10528e-06 -1.0000664e-05 0)
(2.84242e-06 -1.0078524e-05 0)
(2.57764e-06 -1.0149478e-05 -3.3087225e-24)
(2.31106e-06 -1.0213474e-05 0)
(2.04292e-06 -1.027047e-05 0)
(1.77336e-06 -1.0320428e-05 0)
(1.5026e-06 -1.0363314e-05 0)
(1.2308e-06 -1.0399096e-05 0)
(9.5816e-07 -1.042775e-05 0)
(6.8488e-07 -1.044926e-05 0)
(4.111e-07 -1.0463606e-05 4.1359031e-25)
(1.3706e-07 -1.0470782e-05 0)
(1.0470782e-05 -1.3706e-07 0)
(1.0463606e-05 -4.111e-07 -4.1359031e-25)
(1.044926e-05 -6.8488e-07 0)
(1.042775e-05 -9.5816e-07 0)
(1.0399096e-05 -1.2308e-06 0)
(1.0363314e-05 -1.5026e-06 0)
(1.0320428e-05 -1.77336e-06 0)
(1.027047e-05 -2.04292e-06 0)
(1.0213474e-05 -2.31106e-06 0)
(1.0149478e-05 -2.57764e-06 3.3087225e-24)
(1.0078524e-05 -2.84242e-06 0)
(1.0000664e-05 -3.10528e-06 0)
(9.91595e-06 -3.36602e-06 0)
(9.824442e-06 -3.62442e-06 0)
(9.726196e-06 -3.88036e-06 -3.3087225e-24)
(9.621288e-06 -4.13362e-06 0)
(9.509786e-06 -4.38406e-06 0)
(9.391764e-06 -4.6315e-06 0)
(9.267308e-06 -4.87578e-06 0)
(9.1365e-06 -5.11668e-06 3.3087225e-24)
(8.99942e-06 -5.3541e-06 0)
(8.8562e-06 -5.58784e-06 -6.6174449e-24)
(8.70688e-06 -5.81774e-06 0)
(8.5516e-06 -6.04368e-06 0)
(8.39048e-06 -6.26548e-06 0)
(8.22358e-06 -6.48294e-06 0)
(8.05106e-06 -6.69602e-06 -6.6174449e-24)
(7.87304e-06 -6.90446e-06 6.6174449e-24)
(7.68958e-06 -7.10818e-06 6.6174449e-24)
(7.50088e-06 -7.30704e-06 -6.6174449e-24)
(0 -1.4955925e-05 0)
(0 -1.5467907e-05 0)
(0 -1.5997418e-05 0)
(0 -1.6545056e-05 0)
(0 -1.7111438e-05 0)
(0 -1.7697212e-05 0)
(0 -1.8303036e-05 0)
(0 -1.8929602e-05 0)
(0 -1.9577614e-05 0)
(0 -2.0247812e-05 0)
(0 -2.0940952e-05 0)
(0 -2.1657828e-05 0)
(0 -2.239922e-05 0)
(0 -2.316602e-05 0)
(0 -2.395904e-05 0)
(0 -2.477924e-05 0)
(0 -2.562752e-05 0)
(0 -2.65048e-05 0)
(0 -2.741214e-05 0)
(0 -2.835052e-05 0)
(0 -2.932106e-05 0)
(0 -3.03248e-05 0)
(0 -3.13629e-05 0)
(0 -3.243654e-05 0)
(0 -3.354692e-05 0)
(0 -3.469534e-05 0)
(0 -3.588306e-05 0)
(0 -3.711144e-05 0)
(0 -3.838186e-05 0)
(0 -3.969578e-05 0)
(0 -4.105468e-05 0)
(0 -4.24601e-05 0)
(0 -4.391364e-05 0)
(0 -4.541692e-05 0)
(0 -4.697166e-05 0)
(0 -4.857964e-05 0)
(0 -5.024266e-05 0)
(0 -5.19626e-05 0)
(0 -5.374142e-05 0)
(0 -5.558116e-05 0)
(0 -5.748384e-05 0)
(0 -5.94517e-05 0)
(0 -6.148688e-05 0)
(0 -6.359174e-05 0)
(0 -6.576868e-05 0)
(0 -6.802012e-05 0)
(0 -7.034866e-05 0)
(0 -7.275686e-05 0)
(0 -7.524756e-05 0)
(0 -7.782348e-05 0)
(0 -8.04876e-05 0)
(0 -8.3243e-05 0)
(0 -8.60924e-05 0)
(0 -8.90398e-05 0)
(0 -9.20878e-05 0)
(0 -9.52404e-05 0)
(0 -9.85006e-05 0)
(0 -0.0001018724 0)
(0 -0.00010536 0)
(0 -0.0001089668 0)
(0 -0.0001126968 0)
(0 -0.000116555 0)
(0 -0.0001205448 0)
(0 -0.0001246716 0)
(0 -0.0001289392 0)
(0 -0.0001333534 0)
(0 -0.0001379182 0)
(0 -0.0001426398 0)
(0 -0.0001475226 0)
(0 -0.0001525728 0)
(0 -0.0001577956 0)
(0 -0.0001631976 0)
(0 -0.0001687842 0)
(0 -0.0001745622 0)
(0 -0.000180538 0)
(0 -0.0001867182 0)
(0 -0.0001931102 0)
(0 -0.000199721 0)
(0 -0.0002065578 0)
(0 -0.000213629 0)
(0 -0.000220942 0)
(0 -0.0002285056 0)
(0 -0.000236328 0)
(0 -0.000244418 0)
(0 -0.0002527852 0)
(0 -0.0002614388 0)
(0 -0.0002703886 0)
(0 -0.0002796448 0)
(0 -0.0002892178 0)
(0 -0.0002991184 0)
(0 -0.0005733334 0)
(0 -0.0005733332 0)
(0 -0.0005733334 0)
(0 -0.0005733334 0)
(0 -0.0005733332 0)
(0 -0.0005733334 0)
(0 -0.0005733334 0)
(0 -0.0005733332 0)
(0 -0.0005733334 0)
(0 -0.0005733334 0)
(0 -0.0005733332 0)
(0 -0.0005733334 0)
(0 -0.0005733334 0)
(0 -0.0005733332 0)
(0 -0.0005733334 0)
(0 -0.0005733334 0)
(0 -0.0005733332 0)
(0 -0.0005733334 0)
(0 -0.0005733334 0)
(0 -0.0005733326 0)
(0 -0.000573334 0)
(0 -0.000573334 0)
(0 -0.000573332 0)
(0 -0.000573334 0)
(0 -0.000573334 0)
(0 -0.000573332 0)
(0 -0.000573334 0)
(0 -0.000573334 0)
(0 -0.000573332 0)
(0 -0.000573334 0)
(0 -0.000573334 0)
(0 -0.000573332 0)
(0 -0.000573334 0)
(0 -0.000573334 0)
(0 -0.000573332 0)
(0 -0.000573334 0)
(0 -0.000573334 0)
(0 -0.000573332 0)
(0 -0.000573334 0)
(0 -0.000573334 0)
(0 -0.000573332 0)
(0 -0.000573334 0)
(0 -0.000573334 0)
(0 -0.000573332 0)
(0 -0.000573334 0)
(0 -0.000573334 0)
(0 -0.000573332 0)
(0 -0.000573334 0)
(0 -0.000573334 0)
(0 -0.000573332 0)
(0 -0.000573334 0)
(0 -0.000573334 0)
(0 -0.000573332 0)
(0 -0.000573334 0)
(0 -0.000573334 0)
(0 -0.000573332 0)
(0 -0.000573334 0)
(0 -0.000573334 0)
(0 -0.000573332 0)
(0 -0.000573334 0)
(-7.30704e-06 -7.5e-06 -6.6174449e-24)
(-7.10818e-06 -7.69e-06 -6.6174449e-24)
(-6.90446e-06 -7.872e-06 0)
(-6.69602e-06 -8.052e-06 -6.6174449e-24)
(-6.48294e-06 -8.224e-06 6.6174449e-24)
(-6.26548e-06 -8.39e-06 -6.6174449e-24)
(-6.04368e-06 -8.552e-06 0)
(-5.81774e-06 -8.706e-06 0)
(-5.58784e-06 -8.856e-06 0)
(-5.3541e-06 -9e-06 0)
(-5.11668e-06 -9.136e-06 0)
(-4.87578e-06 -9.268e-06 -3.3087225e-24)
(-4.6315e-06 -9.392e-06 0)
(-4.38406e-06 -9.51e-06 -3.3087225e-24)
(-4.13362e-06 -9.62e-06 0)
(-3.88036e-06 -9.726e-06 -3.3087225e-24)
(-3.62442e-06 -9.826e-06 -3.3087225e-24)
(-3.36602e-06 -9.916e-06 0)
(-3.10528e-06 -1e-05 0)
(-2.84242e-06 -1.0078e-05 0)
(-2.57764e-06 -1.015e-05 0)
(-2.31106e-06 -1.0214e-05 0)
(-2.04292e-06 -1.027e-05 0)
(-1.77336e-06 -1.032e-05 0)
(-1.5026e-06 -1.0364e-05 0)
(-1.2308e-06 -1.0398e-05 0)
(-9.5816e-07 -1.0428e-05 -8.2718061e-25)
(-6.8488e-07 -1.045e-05 0)
(-4.111e-07 -1.0464e-05 0)
(-1.3706e-07 -1.047e-05 0)
(-1.0470782e-05 -1.38e-07 0)
(-1.0463606e-05 -4.1e-07 4.1359031e-25)
(-1.044926e-05 -6.86e-07 0)
(-1.042775e-05 -9.58e-07 0)
(-1.0399096e-05 -1.23e-06 -1.6543612e-24)
(-1.0363314e-05 -1.502e-06 0)
(-1.0320428e-05 -1.774e-06 0)
(-1.027047e-05 -2.042e-06 -1.6543612e-24)
(-1.0213474e-05 -2.312e-06 -1.6543612e-24)
(-1.0149478e-05 -2.578e-06 0)
(-1.0078524e-05 -2.842e-06 3.3087225e-24)
(-1.0000664e-05 -3.106e-06 0)
(-9.91595e-06 -3.366e-06 -3.3087225e-24)
(-9.824442e-06 -3.624e-06 -3.3087225e-24)
(-9.726196e-06 -3.88e-06 0)
(-9.621288e-06 -4.134e-06 0)
(-9.509786e-06 -4.384e-06 0)
(-9.391764e-06 -4.632e-06 0)
(-9.267308e-06 -4.876e-06 0)
(-9.1365e-06 -5.116e-06 3.3087225e-24)
(-8.99942e-06 -5.354e-06 0)
(-8.8562e-06 -5.588e-06 6.6174449e-24)
(-8.70688e-06 -5.818e-06 0)
(-8.5516e-06 -6.044e-06 -6.6174449e-24)
(-8.39048e-06 -6.264e-06 0)
(-8.22358e-06 -6.484e-06 0)
(-8.05106e-06 -6.696e-06 0)
(-7.87304e-06 -6.904e-06 0)
(-7.68958e-06 -7.108e-06 0)
(-7.50088e-06 -7.308e-06 -6.6174449e-24)
(0 -1.4956e-05 0)
(0 -1.5468e-05 0)
(0 -1.5998e-05 0)
(0 -1.6544e-05 0)
(0 -1.7112e-05 0)
(0 -1.7696e-05 0)
(0 -1.8304e-05 0)
(0 -1.893e-05 0)
(0 -1.9578e-05 0)
(0 -2.0248e-05 0)
(0 -2.094e-05 0)
(0 -2.1658e-05 0)
(0 -2.24e-05 0)
(0 -2.3166e-05 0)
(0 -2.3958e-05 0)
(0 -2.478e-05 0)
(0 -2.5626e-05 0)
(0 -2.6506e-05 0)
(0 -2.7412e-05 0)
(0 -2.835e-05 0)
(0 -2.9322e-05 0)
(0 -3.0324e-05 0)
(0 -3.1364e-05 0)
(0 -3.2436e-05 0)
(0 -3.3546e-05 0)
(0 -3.4696e-05 0)
(0 -3.5882e-05 0)
(0 -3.7112e-05 0)
(0 -3.8382e-05 0)
(0 -3.9696e-05 0)
(0 -4.1054e-05 0)
(0 -4.246e-05 0)
(0 -4.3914e-05 0)
(0 -4.5418e-05 0)
(0 -4.697e-05 0)
(0 -4.858e-05 0)
(0 -5.0244e-05 0)
(0 -5.1962e-05 0)
(0 -5.3742e-05 0)
(0 -5.558e-05 0)
(0 -5.7484e-05 0)
(0 -5.9452e-05 0)
(0 -6.1486e-05 0)
(0 -6.3592e-05 0)
(0 -6.577e-05 0)
(0 -6.802e-05 0)
(0 -7.0348e-05 0)
(0 -7.2756e-05 0)
(0 -7.5248e-05 0)
(0 -7.7824e-05 0)
(0 -8.0488e-05 0)
(0 -8.3242e-05 0)
(0 -8.6094e-05 0)
(0 -8.9038e-05 0)
(0 -9.2088e-05 0)
(0 -9.524e-05 0)
(0 -9.8502e-05 0)
(0 -0.000101872 0)
(0 -0.00010536 0)
(0 -0.000108966 0)
(0 -0.000112698 0)
(0 -0.000116554 0)
(0 -0.000120546 0)
(0 -0.00012467 0)
(0 -0.00012894 0)
(0 -0.000133354 0)
(0 -0.000137918 0)
(0 -0.00014264 0)
(0 -0.000147522 0)
(0 -0.000152572 0)
(0 -0.000157796 0)
(0 -0.000163198 0)
(0 -0.000168784 0)
(0 -0.000174562 0)
(0 -0.000180538 0)
(0 -0.000186718 0)
(0 -0.000193112 0)
(0 -0.00019972 0)
(0 -0.000206558 0)
(0 -0.000213628 0)
(0 -0.000220942 0)
(0 -0.000228506 0)
(0 -0.000236328 0)
(0 -0.000244418 0)
(0 -0.000252786 0)
(0 -0.000261438 0)
(0 -0.00027039 0)
(0 -0.000279644 0)
(0 -0.000289218 0)
(0 -0.000299118 0)
(0 -0.000573334 0)
(0 -0.000573332 0)
(0 -0.000573334 0)
(0 -0.000573334 0)
(0 -0.000573332 0)
(0 -0.000573334 0)
(0 -0.000573334 0)
(0 -0.000573332 0)
(0 -0.000573334 0)
(0 -0.000573334 0)
(0 -0.000573332 0)
(0 -0.000573334 0)
(0 -0.000573334 0)
(0 -0.000573332 0)
(0 -0.000573334 0)
(0 -0.000573334 0)
(0 -0.000573332 0)
(0 -0.000573334 0)
(0 -0.000573334 0)
(0 -0.000573332 0)
(0 -0.000573334 0)
(0 -0.000573334 0)
(0 -0.000573332 0)
(0 -0.000573334 0)
(0 -0.000573334 0)
(0 -0.000573332 0)
(0 -0.000573334 0)
(0 -0.000573334 0)
(0 -0.000573332 0)
(0 -0.000573334 0)
(0 -0.000573334 0)
(0 -0.000573332 0)
(0 -0.000573334 0)
(0 -0.000573334 0)
(0 -0.000573332 0)
(0 -0.000573334 0)
(0 -0.000573334 0)
(0 -0.000573332 0)
(0 -0.000573334 0)
(0 -0.000573334 0)
(0 -0.000573332 0)
(0 -0.000573334 0)
(0 -0.000573334 0)
(0 -0.000573332 0)
(0 -0.000573334 0)
(0 -0.000573334 0)
(0 -0.000573332 0)
(0 -0.000573334 0)
(0 -0.000573334 0)
(0 -0.000573332 0)
(0 -0.000573334 0)
(0 -0.000573334 0)
(0 -0.000573332 0)
(0 -0.000573334 0)
(0 -0.000573334 0)
(0 -0.000573332 0)
(0 -0.000573334 0)
(0 -0.000573334 0)
(0 -0.000573332 0)
(0 -0.000573334 0)
(7.30704e-06 7.50088e-06 -6.6174449e-24)
(7.10818e-06 7.68958e-06 6.6174449e-24)
(6.90446e-06 7.87304e-06 6.6174449e-24)
(6.69602e-06 8.05106e-06 -6.6174449e-24)
(6.48294e-06 8.22358e-06 0)
(6.26548e-06 8.39048e-06 0)
(6.04368e-06 8.5516e-06 0)
(5.81774e-06 8.70688e-06 0)
(5.58784e-06 8.8562e-06 -6.6174449e-24)
(5.3541e-06 8.99942e-06 0)
(5.11668e-06 9.1365e-06 3.3087225e-24)
(4.87578e-06 9.267308e-06 0)
(4.6315e-06 9.391764e-06 0)
(4.38406e-06 9.509786e-06 0)
(4.13362e-06 9.621288e-06 0)
(3.88036e-06 9.726196e-06 -3.3087225e-24)
(3.62442e-06 9.824442e-06 0)
(3.36602e-06 9.91595e-06 0)
(3.10528e-06 1.0000664e-05 0)
(2.84242e-06 1.0078524e-05 0)
(2.57764e-06 1.0149478e-05 3.3087225e-24)
(2.31106e-06 1.0213474e-05 0)
(2.04292e-06 1.027047e-05 0)
(1.77336e-06 1.0320428e-05 0)
(1.5026e-06 1.0363314e-05 0)
(1.2308e-06 1.0399096e-05 0)
(9.5816e-07 1.042775e-05 0)
(6.8488e-07 1.044926e-05 0)
(4.111e-07 1.0463606e-05 -4.1359031e-25)
(1.3706e-07 1.0470782e-05 0)
(1.0470782e-05 1.3706e-07 0)
(1.0463606e-05 4.111e-07 4.1359031e-25)
(1.044926e-05 6.8488e-07 0)
(1.042775e-05 9.5816e-07 0)
(1.0399096e-05 1.2308e-06 0)
(1.0363314e-05 1.5026e-06 0)
(1.0320428e-05 1.77336e-06 0)
(1.027047e-05 2.04292e-06 0)
(1.0213474e-05 2.31106e-06 0)
(1.0149478e-05 2.57764e-06 -3.3087225e-24)
(1.0078524e-05 2.84242e-06 0)
(1.0000664e-05 3.10528e-06 0)
(9.91595e-06 3.36602e-06 0)
(9.824442e-06 3.62442e-06 0)
(9.726196e-06 3.88036e-06 3.3087225e-24)
(9.621288e-06 4.13362e-06 0)
(9.509786e-06 4.38406e-06 0)
(9.391764e-06 4.6315e-06 0)
(9.267308e-06 4.87578e-06 0)
(9.1365e-06 5.11668e-06 -3.3087225e-24)
(8.99942e-06 5.3541e-06 0)
(8.8562e-06 5.58784e-06 6.6174449e-24)
(8.70688e-06 5.81774e-06 0)
(8.5516e-06 6.04368e-06 0)
(8.39048e-06 6.26548e-06 0)
(8.22358e-06 6.48294e-06 0)
(8.05106e-06 6.69602e-06 6.6174449e-24)
(7.87304e-06 6.90446e-06 -6.6174449e-24)
(7.68958e-06 7.10818e-06 -6.6174449e-24)
(7.50088e-06 7.30704e-06 6.6174449e-24)
(0 1.4955925e-05 0)
(0 1.5467907e-05 0)
(0 1.5997418e-05 0)
(0 1.6545056e-05 0)
(0 1.7111438e-05 0)
(0 1.7697212e-05 0)
(0 1.8303036e-05 0)
(0 1.8929602e-05 0)
(0 1.9577614e-05 0)
(0 2.0247812e-05 0)
(0 2.0940952e-05 0)
(0 2.1657828e-05 0)
(0 2.239922e-05 0)
(0 2.316602e-05 0)
(0 2.395904e-05 0)
(0 2.477924e-05 0)
(0 2.562752e-05 0)
(0 2.65048e-05 0)
(0 2.741214e-05 0)
(0 2.835052e-05 0)
(0 2.932106e-05 0)
(0 3.03248e-05 0)
(0 3.13629e-05 0)
(0 3.243654e-05 0)
(0 3.354692e-05 0)
(0 3.469534e-05 0)
(0 3.588306e-05 0)
(0 3.711144e-05 0)
(0 3.838186e-05 0)
(0 3.969578e-05 0)
(0 4.105468e-05 0)
(0 4.24601e-05 0)
(0 4.391364e-05 0)
(0 4.541692e-05 0)
(0 4.697166e-05 0)
(0 4.857964e-05 0)
(0 5.024266e-05 0)
(0 5.19626e-05 0)
(0 5.374142e-05 0)
(0 5.558116e-05 0)
(0 5.748384e-05 0)
(0 5.94517e-05 0)
(0 6.148688e-05 0)
(0 6.359174e-05 0)
(0 6.576868e-05 0)
(0 6.802012e-05 0)
(0 7.034866e-05 0)
(0 7.275686e-05 0)
(0 7.524756e-05 0)
(0 7.782348e-05 0)
(0 8.04876e-05 0)
(0 8.3243e-05 0)
(0 8.60924e-05 0)
(0 8.90398e-05 0)
(0 9.20878e-05 0)
(0 9.52404e-05 0)
(0 9.85006e-05 0)
(0 0.0001018724 0)
(0 0.00010536 0)
(0 0.0001089668 0)
(0 0.0001126968 0)
(0 0.000116555 0)
(0 0.0001205448 0)
(0 0.0001246716 0)
(0 0.0001289392 0)
(0 0.0001333534 0)
(0 0.0001379182 0)
(0 0.0001426398 0)
(0 0.0001475226 0)
(0 0.0001525728 0)
(0 0.0001577956 0)
(0 0.0001631976 0)
(0 0.0001687842 0)
(0 0.0001745622 0)
(0 0.000180538 0)
(0 0.0001867182 0)
(0 0.0001931102 0)
(0 0.000199721 0)
(0 0.0002065578 0)
(0 0.000213629 0)
(0 0.000220942 0)
(0 0.0002285056 0)
(0 0.000236328 0)
(0 0.000244418 0)
(0 0.0002527852 0)
(0 0.0002614388 0)
(0 0.0002703886 0)
(0 0.0002796448 0)
(0 0.0002892178 0)
(0 0.0002991184 0)
(0 0.0005733334 0)
(0 0.0005733332 0)
(0 0.0005733334 0)
(0 0.0005733334 0)
(0 0.0005733332 0)
(0 0.0005733334 0)
(0 0.0005733334 0)
(0 0.0005733332 0)
(0 0.0005733334 0)
(0 0.0005733334 0)
(0 0.0005733332 0)
(0 0.0005733334 0)
(0 0.0005733334 0)
(0 0.0005733332 0)
(0 0.0005733334 0)
(0 0.0005733334 0)
(0 0.0005733332 0)
(0 0.0005733334 0)
(0 0.0005733334 0)
(0 0.0005733326 0)
(0 0.000573334 0)
(0 0.000573334 0)
(0 0.000573332 0)
(0 0.000573334 0)
(0 0.000573334 0)
(0 0.000573332 0)
(0 0.000573334 0)
(0 0.000573334 0)
(0 0.000573332 0)
(0 0.000573334 0)
(0 0.000573334 0)
(0 0.000573332 0)
(0 0.000573334 0)
(0 0.000573334 0)
(0 0.000573332 0)
(0 0.000573334 0)
(0 0.000573334 0)
(0 0.000573332 0)
(0 0.000573334 0)
(0 0.000573334 0)
(0 0.000573332 0)
(0 0.000573334 0)
(0 0.000573334 0)
(0 0.000573332 0)
(0 0.000573334 0)
(0 0.000573334 0)
(0 0.000573332 0)
(0 0.000573334 0)
(0 0.000573334 0)
(0 0.000573332 0)
(0 0.000573334 0)
(0 0.000573334 0)
(0 0.000573332 0)
(0 0.000573334 0)
(0 0.000573334 0)
(0 0.000573332 0)
(0 0.000573334 0)
(0 0.000573334 0)
(0 0.000573332 0)
(0 0.000573334 0)
(-7.30704e-06 7.5e-06 6.6174449e-24)
(-7.10818e-06 7.69e-06 6.6174449e-24)
(-6.90446e-06 7.872e-06 0)
(-6.69602e-06 8.052e-06 6.6174449e-24)
(-6.48294e-06 8.224e-06 -6.6174449e-24)
(-6.26548e-06 8.39e-06 6.6174449e-24)
(-6.04368e-06 8.552e-06 0)
(-5.81774e-06 8.706e-06 0)
(-5.58784e-06 8.856e-06 0)
(-5.3541e-06 9e-06 0)
(-5.11668e-06 9.136e-06 0)
(-4.87578e-06 9.268e-06 3.3087225e-24)
(-4.6315e-06 9.392e-06 0)
(-4.38406e-06 9.51e-06 3.3087225e-24)
(-4.13362e-06 9.62e-06 0)
(-3.88036e-06 9.726e-06 3.3087225e-24)
(-3.62442e-06 9.826e-06 3.3087225e-24)
(-3.36602e-06 9.916e-06 0)
(-3.10528e-06 1e-05 0)
(-2.84242e-06 1.0078e-05 0)
(-2.57764e-06 1.015e-05 0)
(-2.31106e-06 1.0214e-05 0)
(-2.04292e-06 1.027e-05 0)
(-1.77336e-06 1.032e-05 0)
(-1.5026e-06 1.0364e-05 0)
(-1.2308e-06 1.0398e-05 0)
(-9.5816e-07 1.0428e-05 8.2718061e-25)
(-6.8488e-07 1.045e-05 0)
(-4.111e-07 1.0464e-05 0)
(-1.3706e-07 1.047e-05 0)
(-1.0470782e-05 1.38e-07 0)
(-1.0463606e-05 4.1e-07 -4.1359031e-25)
(-1.044926e-05 6.86e-07 0)
(-1.042775e-05 9.58e-07 0)
(-1.0399096e-05 1.23e-06 1.6543612e-24)
(-1.0363314e-05 1.502e-06 0)
(-1.0320428e-05 1.774e-06 0)
(-1.027047e-05 2.042e-06 1.6543612e-24)
(-1.0213474e-05 2.312e-06 1.6543612e-24)
(-1.0149478e-05 2.578e-06 0)
(-1.0078524e-05 2.842e-06 -3.3087225e-24)
(-1.0000664e-05 3.106e-06 0)
(-9.91595e-06 3.366e-06 3.3087225e-24)
(-9.824442e-06 3.624e-06 3.3087225e-24)
(-9.726196e-06 3.88e-06 0)
(-9.621288e-06 4.134e-06 0)
(-9.509786e-06 4.384e-06 0)
(-9.391764e-06 4.632e-06 0)
(-9.267308e-06 4.876e-06 0)
(-9.1365e-06 5.116e-06 -3.3087225e-24)
(-8.99942e-06 5.354e-06 0)
(-8.8562e-06 5.588e-06 -6.6174449e-24)
(-8.70688e-06 5.818e-06 0)
(-8.5516e-06 6.044e-06 0)
(-8.39048e-06 6.264e-06 0)
(-8.22358e-06 6.484e-06 0)
(-8.05106e-06 6.696e-06 0)
(-7.87304e-06 6.904e-06 0)
(-7.68958e-06 7.108e-06 0)
(-7.50088e-06 7.308e-06 6.6174449e-24)
(0 1.4956e-05 0)
(0 1.5468e-05 0)
(0 1.5998e-05 0)
(0 1.6544e-05 0)
(0 1.7112e-05 0)
(0 1.7696e-05 0)
(0 1.8304e-05 0)
(0 1.893e-05 0)
(0 1.9578e-05 0)
(0 2.0248e-05 0)
(0 2.094e-05 0)
(0 2.1658e-05 0)
(0 2.24e-05 0)
(0 2.3166e-05 0)
(0 2.3958e-05 0)
(0 2.478e-05 0)
(0 2.5626e-05 0)
(0 2.6506e-05 0)
(0 2.7412e-05 0)
(0 2.835e-05 0)
(0 2.9322e-05 0)
(0 3.0324e-05 0)
(0 3.1364e-05 0)
(0 3.2436e-05 0)
(0 3.3546e-05 0)
(0 3.4696e-05 0)
(0 3.5882e-05 0)
(0 3.7112e-05 0)
(0 3.8382e-05 0)
(0 3.9696e-05 0)
(0 4.1054e-05 0)
(0 4.246e-05 0)
(0 4.3914e-05 0)
(0 4.5418e-05 0)
(0 4.697e-05 0)
(0 4.858e-05 0)
(0 5.0244e-05 0)
(0 5.1962e-05 0)
(0 5.3742e-05 0)
(0 5.558e-05 0)
(0 5.7484e-05 0)
(0 5.9452e-05 0)
(0 6.1486e-05 0)
(0 6.3592e-05 0)
(0 6.577e-05 0)
(0 6.802e-05 0)
(0 7.0348e-05 0)
(0 7.2756e-05 0)
(0 7.5248e-05 0)
(0 7.7824e-05 0)
(0 8.0488e-05 0)
(0 8.3242e-05 0)
(0 8.6094e-05 0)
(0 8.9038e-05 0)
(0 9.2088e-05 0)
(0 9.524e-05 0)
(0 9.8502e-05 0)
(0 0.000101872 0)
(0 0.00010536 0)
(0 0.000108966 0)
(0 0.000112698 0)
(0 0.000116554 0)
(0 0.000120546 0)
(0 0.00012467 0)
(0 0.00012894 0)
(0 0.000133354 0)
(0 0.000137918 0)
(0 0.00014264 0)
(0 0.000147522 0)
(0 0.000152572 0)
(0 0.000157796 0)
(0 0.000163198 0)
(0 0.000168784 0)
(0 0.000174562 0)
(0 0.000180538 0)
(0 0.000186718 0)
(0 0.000193112 0)
(0 0.00019972 0)
(0 0.000206558 0)
(0 0.000213628 0)
(0 0.000220942 0)
(0 0.000228506 0)
(0 0.000236328 0)
(0 0.000244418 0)
(0 0.000252786 0)
(0 0.000261438 0)
(0 0.00027039 0)
(0 0.000279644 0)
(0 0.000289218 0)
(0 0.000299118 0)
(0 0.000573334 0)
(0 0.000573332 0)
(0 0.000573334 0)
(0 0.000573334 0)
(0 0.000573332 0)
(0 0.000573334 0)
(0 0.000573334 0)
(0 0.000573332 0)
(0 0.000573334 0)
(0 0.000573334 0)
(0 0.000573332 0)
(0 0.000573334 0)
(0 0.000573334 0)
(0 0.000573332 0)
(0 0.000573334 0)
(0 0.000573334 0)
(0 0.000573332 0)
(0 0.000573334 0)
(0 0.000573334 0)
(0 0.000573332 0)
(0 0.000573334 0)
(0 0.000573334 0)
(0 0.000573332 0)
(0 0.000573334 0)
(0 0.000573334 0)
(0 0.000573332 0)
(0 0.000573334 0)
(0 0.000573334 0)
(0 0.000573332 0)
(0 0.000573334 0)
(0 0.000573334 0)
(0 0.000573332 0)
(0 0.000573334 0)
(0 0.000573334 0)
(0 0.000573332 0)
(0 0.000573334 0)
(0 0.000573334 0)
(0 0.000573332 0)
(0 0.000573334 0)
(0 0.000573334 0)
(0 0.000573332 0)
(0 0.000573334 0)
(0 0.000573334 0)
(0 0.000573332 0)
(0 0.000573334 0)
(0 0.000573334 0)
(0 0.000573332 0)
(0 0.000573334 0)
(0 0.000573334 0)
(0 0.000573332 0)
(0 0.000573334 0)
(0 0.000573334 0)
(0 0.000573332 0)
(0 0.000573334 0)
(0 0.000573334 0)
(0 0.000573332 0)
(0 0.000573334 0)
(0 0.000573334 0)
(0 0.000573332 0)
(0 0.000573334 0)
)


// ************************************************************************* //
