/*--------------------------------*- C++ -*----------------------------------*\
  =========                 |
  \\      /  F ield         | OpenFOAM: The Open Source CFD Toolbox
   \\    /   O peration     | Website:  https://openfoam.org
    \\  /    A nd           | Version:  8
     \\/     M anipulation  |
\*---------------------------------------------------------------------------*/
FoamFile
{
    version     2.0;
    format      ascii;
    class       polyBoundaryMesh;
    location    "constant/polyMesh";
    object      boundary;
}
// * * * * * * * * * * * * * * * * * * * * * * * * * * * * * * * * * * * * * //

5
(
    upWall
    {
        type            patch;
        nFaces          1200;
        startFace       737520;
    }
    in
    {
        type            patch;
        nFaces          480;
        startFace       738720;
    }
    cylinder
    {
        type            wall;
        inGroups        List<word> 1(wall);
        nFaces          1680;
        startFace       739200;
    }
    back
    {
        type            empty;
        inGroups        List<word> 1(empty);
        nFaces          369600;
        startFace       740880;
    }
    front
    {
        type            empty;
        inGroups        List<word> 1(empty);
        nFaces          369600;
        startFace       1110480;
    }
)

// ************************************************************************* //
